	502 'GENROU' 1     7.5000      0.40000E-01   3.0000      0.20000    
          4.0000       0.0000       2.0000       1.5000      0.30000    
         0.80000      0.22000      0.20000      0.12510      0.74190    /
    502 'IEEEST' 1          1            0      0.66700E-02   0.0000    
          0.0000       0.0000      0.50000       0.0000      0.58800E-01
         0.66700E-02  0.16700E-01  0.66700E-02   7.5000       7.5000    
          5.8800      0.50000E-01 -0.50000E-01   0.0000       0.0000    /
    502 'ESAC4A' 1     0.0000      0.19000      -0.1900       1.4000    
          0.8000       30.00      0.50000       5.6400      -4.5300    
          0.0000    /
    502 'TGOV1'  1    0.50000E-01  0.25000       1.0000       0.0000    
         8.1600       30.00       0.0000    /
		      
	502 'GENROU' 2     7.5000      0.40000E-01   3.0000      0.20000    
          4.0000       0.0000       2.0000       1.5000      0.30000    
         0.80000      0.22000      0.20000      0.12510      0.74190    /
    502 'IEEEST' 2          1            0      0.66700E-02   0.0000    
          0.0000       0.0000      0.50000       0.0000      0.58800E-01
         0.66700E-02  0.16700E-01  0.66700E-02   7.5000       7.5000    
          5.8800      0.50000E-01 -0.50000E-01   0.0000       0.0000    /
    502 'ESAC4A' 2     0.0000      0.19000      -0.1900       1.4000    
          0.8000       30.00      0.50000       5.6400      -4.5300    
          0.0000    /
    502 'TGOV1'  2    0.50000E-01  0.25000       1.0000       0.0000    
          8.1600       30.00       0.0000    /
				
	502 'GENROU' 3     7.5000      0.40000E-01   3.0000      0.20000    
          4.0000       0.0000       2.0000       1.5000      0.30000    
         0.80000      0.22000      0.20000      0.12510      0.74190    /
    502 'IEEEST' 3          1            0      0.66700E-02   0.0000    
          0.0000       0.0000      0.50000       0.0000      0.58800E-01
         0.66700E-02  0.16700E-01  0.66700E-02   7.5000       7.5000    
          5.8800      0.50000E-01 -0.50000E-01   0.0000       0.0000    /
    502 'ESAC4A' 3     0.0000      0.19000      -0.1900       1.4000    
          0.8000       30.00      0.50000       5.6400      -4.5300    
          0.0000    /
    502 'TGOV1'  3    0.50000E-01  0.25000       1.0000       0.0000    
          8.1600       30.00       0.0000    /
	
	502 'GENROU' 4     7.5000      0.40000E-01   3.0000      0.20000    
          4.0000       0.0000       2.0000       1.5000      0.30000    
         0.80000      0.22000      0.20000      0.12510      0.74190    /
    502 'IEEEST' 4          1            0      0.66700E-02   0.0000    
          0.0000       0.0000      0.50000       0.0000      0.58800E-01
         0.66700E-02  0.16700E-01  0.66700E-02   7.5000       7.5000    
          5.8800      0.50000E-01 -0.50000E-01   0.0000       0.0000    /
    502 'ESAC4A' 4     0.0000      0.19000      -0.1900       1.4000    
          0.8000       30.00      0.50000       5.6400      -4.5300    
          0.0000    /
    502 'TGOV1'  4    0.50000E-01  0.25000       1.0000       0.0000    
          8.1600       30.00       0.0000    /
	
	502 'GENROU' 5     7.5000      0.40000E-01   3.0000      0.20000    
          4.0000       0.0000       2.0000       1.5000      0.30000    
         0.80000      0.22000      0.20000      0.12510      0.74190    /
    502 'IEEEST' 5          1            0      0.66700E-02   0.0000    
          0.0000       0.0000      0.50000       0.0000      0.58800E-01
         0.66700E-02  0.16700E-01  0.66700E-02   7.5000       7.5000    
          5.8800      0.50000E-01 -0.50000E-01   0.0000       0.0000    /
    502 'ESAC4A' 5     0.0000      0.19000      -0.1900       1.4000    
          0.8000       30.00      0.50000       5.6400      -4.5300    
          0.0000    /
    502 'TGOV1'  5    0.50000E-01  0.25000       1.0000       0.0000    
          8.1600       30.00       0.0000    /

	502 'GENROU' 6     7.5000      0.40000E-01   3.0000      0.20000    
          4.0000       0.0000       2.0000       1.5000      0.30000    
         0.80000      0.22000      0.20000      0.12510      0.74190    /
    502 'IEEEST' 6          1            0      0.66700E-02   0.0000    
          0.0000       0.0000      0.50000       0.0000      0.58800E-01
         0.66700E-02  0.16700E-01  0.66700E-02   7.5000       7.5000    
          5.8800      0.50000E-01 -0.50000E-01   0.0000       0.0000    /
    502 'ESAC4A' 6     0.0000      0.19000      -0.1900       1.4000    
          0.8000       30.00      0.50000       5.6400      -4.5300    
          0.0000    /
    502 'TGOV1'  6    0.50000E-01  0.25000       1.0000       0.0000    
          8.1600       30.00       0.0000    /
		  
	502 'GENROU' 7     7.5000      0.40000E-01   3.0000      0.20000    
          4.0000       0.0000       2.0000       1.5000      0.30000    
         0.80000      0.22000      0.20000      0.12510      0.74190    /
    502 'IEEEST' 7          1            0      0.66700E-02   0.0000    
          0.0000       0.0000      0.50000       0.0000      0.58800E-01
         0.66700E-02  0.16700E-01  0.66700E-02   7.5000       7.5000    
          5.8800      0.50000E-01 -0.50000E-01   0.0000       0.0000    /
    502 'ESAC4A' 7     0.0000      0.19000      -0.1900       1.4000    
          0.8000       30.00      0.50000       5.6400      -4.5300    
          0.0000    /
    502 'TGOV1'  7    0.50000E-01  0.25000       1.0000       0.0000    
          8.1600       30.00       0.0000    /

	502 'GENROU' 8     7.5000      0.40000E-01   3.0000      0.20000    
          4.0000       0.0000       2.0000       1.5000      0.30000    
         0.80000      0.22000      0.20000      0.12510      0.74190    /
    502 'IEEEST' 8          1            0      0.66700E-02   0.0000    
          0.0000       0.0000      0.50000       0.0000      0.58800E-01
         0.66700E-02  0.16700E-01  0.66700E-02   7.5000       7.5000    
          5.8800      0.50000E-01 -0.50000E-01   0.0000       0.0000    /
    502 'ESAC4A' 8     0.0000      0.19000      -0.1900       1.4000    
          0.8000       30.00      0.50000       5.6400      -4.5300    
          0.0000    /
    502 'TGOV1'  8    0.50000E-01  0.25000       1.0000       0.0000    
          8.1600       30.00       0.0000    /		  
		
    503 'GENROU' 1     5.0000      0.22000E-01   1.0000      0.35000E-01
          7.5       0.0000       2.3000       2.0000      0.25000    
         0.35000      0.17000      0.15000      0.12500      0.45000    /
    503 'IEEEST' 1          1            0      0.13300E-01  0.44500E-04
          0.0000       0.0000      0.18700      0.33400E-02  0.20000    
         0.35000      0.18700      0.66700E-02   7.5000       7.5000    
          3.5600      0.50000E-01 -0.50000E-01   0.0000       0.0000    /
    503 'ESAC4A' 1     0.0000      0.19000      -0.1900      0.20000    
         0.80000       30.00      0.10000E-01   5.6400      -4.5300    
          0.0000    /
    503 'TGOV1'  1    0.50000E-01  0.35900       1.0000       0.0000    
          8.1600       30.000       0.0000    /
		  
    503 'GENROU' 2     5.0000      0.22000E-01   1.0000      0.35000E-01
          7.5       0.0000       2.3000       2.0000      0.25000    
         0.35000      0.17000      0.15000      0.12500      0.45000    /
    503 'IEEEST' 2          1            0      0.13300E-01  0.44500E-04
          0.0000       0.0000      0.18700      0.33400E-02  0.20000    
         0.35000      0.18700      0.66700E-02   7.5000       7.5000    
          3.5600      0.50000E-01 -0.50000E-01   0.0000       0.0000    /
    503 'ESAC4A' 2     0.0000      0.19000      -0.1900      0.20000    
         0.80000       30.00      0.10000E-01   5.6400      -4.5300    
          0.0000    /
    503 'TGOV1'  2    0.50000E-01  0.35900       1.0000       0.0000    
          8.1600       30.000       0.0000    /	


	315 'GENROU' 1     5.0000      0.22000E-01   1.0000      0.35000E-01
          1.0       0.0000       2.3000       2.0000      0.25000    
         0.35000      0.17000      0.15000      0.12500      0.45000    /
    315 'IEEEST' 1          1            0      0.13300E-01  0.44500E-04
          0.0000       0.0000      0.18700      0.33400E-02  0.20000    
         0.35000      0.18700      0.66700E-02   7.5000       7.5000    
          3.5600      0.50000E-01 -0.50000E-01   0.0000       0.0000    /
    315 'ESAC4A' 1     0.0000      0.19000      -0.1900      0.20000    
         0.80000       30.00      0.10000E-01   5.6400      -4.5300    
          0.0000    /
    315 'TGOV1'  1    0.50000E-01  0.35900       1.0000       0.0000    
          8.1600       30.000       0.0000    /
    //*****************************************************
//
// SVC model data
//
//*****************************************************

// IBUS  'CSVGN1'   ID   K           T1   T2   T3        T4   T5        RMIN   VMAX    VMIN  CBASE /
   507   'CSVGN1'   1    20.0        0.0  1.0  0.154833  1.0  0.005167  0.0    1.0     0.0   320.0 / PSVC_5
   509   'CSVGN1'   1    18.181818   0.0  1.0  0.154833  1.0  0.005167  0.0    1.0     0.0   400.0 / SSVC_5   

	
	510 'WT3G1'  1
		208 	 0.80000 	30 	0.0000 	0.10000 	1.5000  / 
	
	510 'WT3E1' 1  509   1	 1   510 	511	 '1 '	
		0.15000 	18.000 	5.0000 	0.0000 	0.50000E-01 
		3.0000 	0.60000 	1.12 	0.10000 	1 
		-1	1.1000 	0.50000E-01 	0.45000 	-0.45000 
		5.0000 	0.50000E-01 	0.90000 	1.2000 	40.000 
		-0.50000 	0.40000 	0.50000E-01 	0.50000E-01 	1.0000 
		0.69000 	0.78000 	0.98000 	1.1200 	0.74000 
		1.2000   /
	
	510 'WT3T1' 1 
		0.5 	0.2	  0 	 0.70000E-02 	 21.980 
		0.0000 	1.8000 	1.5000 / 
	/0.5 0.2 chilo , 1.22 4.95
	510 'WT3P1' 1
		0.30000 	150.00 	25.000 	3.0000 	30.000 	0.0000 	27.000 	10.000 	1.0000 /
		
	520 'WT3G1'  1
		84 	0.80000 	30 	0.0000 	0.10000 	1.5000  / 
	
	520 'WT3E1' 1  508   1	 1   520 	521	 '1 '	
		0.15000 	18.000 	5.0000 	0.0000 	0.50000E-01 
		3.0000 	0.60000 	1.12 	0.10000 	1 
		-1 	1.1000 	0.50000E-01 	0.45000 	-0.45000 
		5.0000 	0.50000E-01 	0.90000 	1.2000 	40.000 
		-0.50000 	0.40000 	0.50000E-01 	0.50000E-01 	1.0000 
		0.69000 	0.78000 	0.98000 	1.1200 	0.74000 
		1.2000   /
	/ekhane J+9 r J+10 1 and -1 korechi karon powerflow er Qgen/MVA jodi er value cross kore tahole wrong initialization bole
	520 'WT3T1' 1 
		0.5	 0.2 	0 	0.70000E-02 	21.980 
		0.0000 	1.8000 	1.5000 / 
	
	520 'WT3P1' 1
		0.30000 	150.00 	25.000 	3.0000 	30.000 	0.0000 	27.000 	10.000 	1.0000 /	
	
		

	/5 'LDSHAR' * 49.25 .150 .10 48.75 .150 .20 48.25 .150 .20 0.00 /
	

	
	/proposed/
	/509 'LDSHBL' * 49.25 .150 .4776 48.75 .150 .2494 48.25 .150 .1222 0.00 /
	/507 'LDSHBL' * 49.25 .150 .197 48.75 .150 .1593 48.25 .150 .1276 0.00 /
	/504 'LDSHBL' * 49.25 .150 .1731 48.75 .150 .1431 48.25 .150 .1183 0.00 /
	/508 'LDSHBL' * 49.25 .150 .147 48.75 .150 .125 48.25 .150 .107 0.00 /

	/trivial/
	509 'LDSHBL' * 49.0 .150 0.2 48.5 .150 0.2 48.0 .150 0.1 0.00 /
	507 'LDSHBL' * 49.0 .150 0.2 48.5 .150 0.2 48.0 .150 0.1 0.00 /
	504 'LDSHBL' * 49.0 .150 0.2 48.5 .150 0.2 48.0 .150 0.1 0.00 /
	508 'LDSHBL' * 49.0 .150 0.2 48.5 .150 0.2 48.0 .150 0.1 0.00 /
	
